Version 4
SHEET 1 1868 680
WIRE 432 -416 320 -416
WIRE 688 -416 432 -416
WIRE 912 -416 784 -416
WIRE 976 -416 912 -416
WIRE 1328 -416 976 -416
WIRE 1328 -352 1328 -416
WIRE 1376 -352 1328 -352
WIRE 1504 -352 1456 -352
WIRE 1648 -352 1584 -352
WIRE 1696 -352 1648 -352
WIRE 1744 -352 1696 -352
WIRE 320 -336 320 -416
WIRE 640 -336 592 -336
WIRE 976 -336 976 -416
WIRE 976 -336 704 -336
WIRE 768 -304 768 -368
WIRE 848 -304 768 -304
WIRE 768 -288 768 -304
WIRE 1328 -288 1328 -352
WIRE 1328 -272 1328 -288
WIRE 1744 -272 1744 -352
WIRE 848 -256 848 -304
WIRE 1648 -256 1648 -352
WIRE 464 -208 384 -208
WIRE 592 -208 592 -336
WIRE 592 -208 528 -208
WIRE 1280 -208 1104 -208
WIRE 320 -192 320 -256
WIRE 1328 -192 1328 -208
WIRE 768 -160 768 -208
WIRE 848 -160 848 -192
WIRE 848 -160 768 -160
WIRE 1104 -144 1104 -208
WIRE 1216 -144 1104 -144
WIRE 1104 -128 1104 -144
WIRE 768 -112 768 -160
WIRE 1216 -112 1216 -144
WIRE 384 -96 384 -208
WIRE 768 -96 768 -112
WIRE 1328 -96 1328 -192
WIRE 1648 -96 1648 -192
WIRE 1648 -96 1328 -96
WIRE 1696 -96 1648 -96
WIRE 1744 -96 1744 -192
WIRE 1744 -96 1696 -96
WIRE 1696 -80 1696 -96
WIRE 592 -32 592 -208
WIRE 688 -32 592 -32
WIRE 736 -32 688 -32
WIRE 848 -32 800 -32
WIRE 976 -32 976 -336
WIRE 976 -32 848 -32
WIRE 1104 -16 1104 -48
WIRE 1120 -16 1104 -16
WIRE 1216 -16 1216 -48
WIRE 1216 -16 1120 -16
WIRE 384 16 384 -16
WIRE 736 48 736 32
WIRE 800 48 800 32
WIRE 1120 64 1120 -16
WIRE 1120 80 1120 64
WIRE 800 96 800 48
WIRE 736 144 736 48
WIRE 736 144 704 144
WIRE 1040 144 944 144
WIRE 1088 144 1040 144
WIRE 1200 144 1152 144
WIRE 1216 144 1200 144
WIRE 320 160 224 160
WIRE 400 160 320 160
WIRE 560 160 528 160
WIRE 624 160 560 160
WIRE 736 176 704 176
WIRE 944 176 944 144
WIRE 224 192 224 160
WIRE 1088 224 1088 208
WIRE 1152 224 1152 208
WIRE 1152 272 1152 224
WIRE 944 304 944 256
WIRE 224 320 224 272
WIRE 1216 320 1216 144
WIRE 736 352 736 176
WIRE 1088 352 1088 224
WIRE 1088 352 736 352
FLAG 224 320 0
FLAG 1696 -80 0
FLAG 320 -192 0
FLAG 1696 -352 Vout
FLAG 800 96 0
FLAG 912 -416 Vsw
FLAG 432 -416 in
FLAG 560 160 c
FLAG 320 160 vc
FLAG 768 -304 g1
FLAG 1152 272 0
FLAG 1104 -144 g2
FLAG 1216 320 0
FLAG 384 16 0
FLAG 944 304 0
SYMBOL voltage 224 176 R0
WINDOW 123 0 0 Left 0
WINDOW 39 0 0 Left 0
SYMATTR InstName Vduty
SYMATTR Value 0.103
SYMBOL nmos 688 -368 R270
SYMATTR InstName M1
SYMATTR Value IRFZ44N
SYMBOL cap 1632 -256 R0
SYMATTR InstName C1
SYMATTR Value 680µF
SYMBOL res 1728 -288 R0
SYMATTR InstName Rload
SYMATTR Value 0.05ohm
SYMBOL ind 1360 -336 R270
WINDOW 0 32 56 VTop 2
WINDOW 3 5 56 VBottom 2
SYMATTR InstName L1
SYMATTR Value 4µH
SYMBOL res 1600 -368 R90
WINDOW 0 0 56 VBottom 2
WINDOW 3 32 56 VTop 2
SYMATTR InstName RL
SYMATTR Value 2mohm
SYMBOL voltage 320 -352 R0
SYMATTR InstName Vg
SYMATTR Value 12
SYMBOL res 752 -304 R0
WINDOW 0 35 49 Left 2
WINDOW 3 -32 47 Left 2
SYMATTR InstName R1
SYMATTR Value 10
SYMBOL Driver 768 -16 R270
WINDOW 39 46 -39 Left 2
SYMATTR InstName U1
SYMBOL PWM 464 160 R0
SYMATTR InstName U2
SYMATTR SpiceLine2 Dmin=0, Dmax=0.9, Voffset=0
SYMBOL schottky 832 -256 R0
SYMATTR InstName D3
SYMATTR Value MBR735
SYMATTR Description Diode
SYMATTR Type diode
SYMBOL nmos 1280 -288 R0
SYMATTR InstName M2
SYMATTR Value IRFH5004
SYMBOL res 1088 -144 R0
WINDOW 0 35 47 Left 2
WINDOW 3 -21 43 Left 2
SYMATTR InstName R2
SYMATTR Value 5
SYMBOL Driver 1120 160 R270
WINDOW 39 28 -40 Left 2
SYMATTR InstName U3
SYMBOL schottky 1200 -112 R0
SYMATTR InstName D1
SYMATTR Value MBR735
SYMATTR Description Diode
SYMATTR Type diode
SYMBOL schottky 464 -192 R270
WINDOW 0 32 32 VTop 2
WINDOW 3 0 32 VBottom 2
SYMATTR InstName D2
SYMATTR Value 1N5817
SYMATTR Description Diode
SYMATTR Type diode
SYMBOL cap 640 -320 R270
WINDOW 0 32 32 VTop 2
WINDOW 3 0 32 VBottom 2
SYMATTR InstName C2
SYMATTR Value 10µF
SYMBOL dead_time 656 160 R0
SYMATTR InstName U4
SYMBOL voltage 384 -112 R0
SYMATTR InstName Vg1
SYMATTR Value 12
SYMBOL voltage 944 160 R0
SYMATTR InstName Vg2
SYMATTR Value 12
TEXT 1272 160 Left 2 !.lib switching.lib
TEXT 1272 128 Left 2 !.options reltol=0.0005
TEXT 1272 96 Left 2 !.tran 0 2msec 0 20e-9 startup uic
