Version 4
SHEET 1 1364 756
WIRE -464 -256 -592 -256
WIRE -400 -256 -464 -256
WIRE 144 -256 -400 -256
WIRE -592 -224 -592 -256
WIRE -400 -192 -400 -256
WIRE -368 -192 -400 -192
WIRE -208 -192 -304 -192
WIRE -144 -192 -208 -192
WIRE -64 -192 -144 -192
WIRE -208 -144 -208 -192
WIRE 144 -144 144 -256
WIRE -592 -96 -592 -144
WIRE -432 -96 -464 -96
WIRE -288 -96 -432 -96
WIRE -16 -64 -128 -64
WIRE 80 -64 64 -64
WIRE 96 -64 80 -64
WIRE -288 -32 -336 -32
WIRE -336 0 -336 -32
WIRE -208 48 -208 16
WIRE -64 48 -64 -128
WIRE -64 48 -208 48
WIRE 144 48 144 -48
WIRE 144 48 -64 48
WIRE 208 48 144 48
WIRE 256 48 208 48
WIRE 352 48 336 48
WIRE 512 48 432 48
WIRE 576 48 512 48
WIRE 688 48 576 48
WIRE 768 48 688 48
WIRE 896 48 768 48
WIRE 512 64 512 48
WIRE -400 96 -400 -192
WIRE -208 96 -400 96
WIRE 768 96 768 48
WIRE 896 96 896 48
WIRE -208 128 -208 96
WIRE 144 128 144 48
WIRE -464 144 -464 -96
WIRE -464 144 -496 144
WIRE -576 160 -624 160
WIRE -432 176 -496 176
WIRE -288 176 -432 176
WIRE 512 192 512 144
WIRE -16 208 -128 208
WIRE 80 208 64 208
WIRE 96 208 80 208
WIRE -288 240 -336 240
WIRE 768 240 768 176
WIRE 896 240 896 176
WIRE -336 272 -336 240
WIRE 144 272 144 224
WIRE 512 272 512 256
WIRE -208 320 -208 288
WIRE 128 432 96 432
WIRE 240 432 208 432
WIRE 336 432 304 432
WIRE 464 464 400 464
WIRE 608 464 544 464
WIRE 240 496 240 480
WIRE 240 528 240 496
WIRE 336 544 336 432
WIRE 336 544 272 544
WIRE 400 544 400 464
WIRE 400 544 336 544
WIRE 416 544 400 544
WIRE 496 544 480 544
WIRE 608 544 608 464
WIRE 608 544 576 544
WIRE 688 544 688 48
WIRE 688 544 608 544
WIRE -624 560 -624 160
WIRE -400 560 -624 560
WIRE -256 560 -400 560
WIRE -32 560 -128 560
WIRE 96 560 96 432
WIRE 96 560 -32 560
WIRE 208 560 96 560
WIRE 336 576 272 576
WIRE 336 624 336 576
WIRE 240 672 240 592
WIRE 336 736 336 704
FLAG 512 272 0
FLAG -592 -96 0
FLAG 896 240 0
FLAG 576 48 out
FLAG 768 240 0
FLAG -336 0 0
FLAG -336 272 0
FLAG 144 272 0
FLAG -208 320 0
FLAG 80 -64 g1
FLAG 80 208 g2
FLAG -432 -96 c1
FLAG -432 176 c2
FLAG 208 48 sw
FLAG 240 672 0
FLAG 336 736 0
FLAG -464 -256 in
FLAG 240 496 in
FLAG -144 -192 bootstrap
FLAG -400 560 c
FLAG -32 560 ctrl
SYMBOL voltage -592 -240 R0
SYMATTR InstName Vg
SYMATTR Value 5V
SYMBOL ind 240 64 R270
WINDOW 0 32 56 VTop 2
WINDOW 3 -4 59 VBottom 2
SYMATTR InstName L1
SYMATTR Value 1µH ic=0A
SYMBOL res 448 32 R90
WINDOW 0 0 56 VBottom 2
WINDOW 3 44 55 VTop 2
SYMATTR InstName RL
SYMATTR Value 15mOhm
SYMBOL res 528 160 R180
WINDOW 0 -67 39 Left 2
WINDOW 3 -107 9 Left 2
SYMATTR InstName Resr
SYMATTR Value 0.8mOhm
SYMBOL cap 496 192 R0
WINDOW 3 -125 56 Left 2
SYMATTR Value 200µF ic=0V
SYMATTR InstName C1
SYMBOL current 896 96 R0
WINDOW 123 0 0 Left 2
WINDOW 39 0 0 Left 2
WINDOW 3 -186 -75 Left 2
SYMATTR Value PULSE(0 5 150u 1u 1u 25u 200u)
SYMATTR InstName Iload
SYMBOL res 752 80 R0
WINDOW 0 55 38 Left 2
WINDOW 3 59 69 Left 2
SYMATTR InstName Rload
SYMATTR Value 1k
SYMBOL nmos 96 -144 R0
SYMATTR InstName M1
SYMATTR Value BSC150N03LD
SYMBOL nmos 96 128 R0
SYMATTR InstName M2
SYMATTR Value BSC150N03LD
SYMBOL PWM -192 560 M0
SYMATTR InstName U1
SYMATTR SpiceLine VM=1V, fs=1MEG
SYMATTR SpiceLine2 Dmin=0.05, Dmax=0.9, Voffset=0V
SYMBOL Driver -224 -64 R0
WINDOW 39 21 44 Left 2
SYMATTR InstName U3
SYMATTR SpiceLine2 Tdelay=20ns, IQ=1mA, Vuvl=3V
SYMBOL Driver -224 208 R0
WINDOW 39 22 45 Left 2
SYMATTR InstName U4
SYMATTR SpiceLine2 Tdelay=20ns, IQ=1mA, Vuvl=3V
SYMBOL res 80 -80 R90
WINDOW 0 0 56 VBottom 2
WINDOW 3 32 56 VTop 2
SYMATTR InstName Rg1
SYMATTR Value 5
SYMBOL res 80 192 R90
WINDOW 0 0 56 VBottom 2
WINDOW 3 32 56 VTop 2
SYMATTR InstName Rg2
SYMATTR Value 5
SYMBOL cap -80 -192 R0
SYMATTR InstName Cb
SYMATTR Value 10µF
SYMBOL schottky -368 -176 R270
WINDOW 0 32 32 VTop 2
WINDOW 3 0 32 VBottom 2
SYMATTR InstName D1
SYMATTR Value 1N5817
SYMATTR Description Diode
SYMATTR Type diode
SYMBOL Opamps\\LT1215 240 496 M0
SYMATTR InstName U5
SYMBOL cap 480 528 R90
WINDOW 0 0 32 VBottom 2
WINDOW 3 28 32 VBottom 2
SYMATTR InstName C4
SYMATTR Value 1.6076nF
SYMBOL cap 304 416 R90
WINDOW 0 0 32 VBottom 2
WINDOW 3 28 32 VBottom 2
SYMATTR InstName C2
SYMATTR Value 1.0816nF
SYMBOL res 224 416 R90
WINDOW 0 0 56 VBottom 2
WINDOW 3 28 56 VBottom 2
SYMATTR InstName R2
SYMATTR Value 16350
SYMBOL res 592 528 R90
WINDOW 0 0 56 VBottom 2
WINDOW 3 28 56 VBottom 2
SYMATTR InstName R4
SYMATTR Value 330
SYMBOL res 560 448 R90
WINDOW 0 0 56 VBottom 2
WINDOW 3 32 56 VTop 2
SYMATTR InstName R1
SYMATTR Value 3.0K
SYMBOL voltage 336 608 R0
WINDOW 123 0 0 Left 2
WINDOW 39 0 0 Left 2
SYMATTR InstName Vref
SYMATTR Value PWL(0 0 50u 1.8V)
SYMBOL dead_time -544 160 R0
SYMATTR InstName U6
TEXT 368 -104 Left 2 !.lib switching.lib
TEXT 368 -72 Left 2 !.options reltol=0.0005
TEXT 368 -40 Left 2 !.tran 0 200us 0 10n uic
TEXT -392 368 Center 1 ;1.8V, 5A point-of-load (POL) \nvoltage regulator operating at 1MHz\n \nPower Electronics Specialization\nUniversity of Colorado Boulder
